-- This reservoir simulation deck is made available under the Open Database
-- License: http://opendatacommons.org/licenses/odbl/1.0/. Any rights in
-- individual contents of the database are licensed under the Database Contents
-- License: http://opendatacommons.org/licenses/dbcl/1.0/

-- Copyright (C) 2018 Equinor

-- This deck tests usage of EDITNNC, keyword is applied
-- to both existing and non-existing connections

------------------------------------------------------------------------------------------------

------------------------------------------------------------------------------------------------
RUNSPEC
------------------------------------------------------------------------------------------------

DIMENS
 6 5 7 /

OIL
WATER
GAS
DISGAS
VAPOIL

METRIC

START
 1 'OCT' 2018 /

--
GRIDOPTS
'YES'		0 / 


EQLDIMS
 1  100  25 /


--
REGDIMS
-- max. ntfip  nmfipr  max. nrfreg   max. ntfreg
   1          4       1*            72    /

--
--
WELLDIMS
--max.well  max.con/well  max.grup  max.w/grup
 110        100            30        30   /

--
TABDIMS
--ntsfun     ntpvt  max.nssfun  max.nppvt  max.ntfip  max.nrpvt
  1          1      50          60         72         60 /

--

VFPPDIMS
--max.rate  max.THP   max.fw   max.fg   max.ALQ    max.tabs
  25        15        15       15       0          60       /

--
VFPIDIMS
--max.rate  max.THP  max.tab
   30       20       60  /

--
NSTACK
 60 /


--
UNIFIN
UNIFOUT

--

------------------------------------------------------------------------------------------------
GRID
------------------------------------------------------------------------------------------------

--
NEWTRAN

--
GRIDFILE
0  1/

--
GRIDUNIT
METRES  /

--
INIT



INCLUDE
'include/mod2_6x5x7.grdecl' /

PORO
 30*0.25
 30*0.22
 30*0.17
 30*0.28
 30*0.14
 30*0.23
 30*0.22 /
 
PERMX
 30*210
 30*120
 30*80
 30*250
 30*1
 30*170
 30*120 /


NTG
 30*0.95
 30*0.88
 30*0.85
 30*0.70
 30*0.14
 30*0.77
 30*0.82 /

MULTIPLY
 'PERMX' 5.0 /
/ 


COPY
 PERMX PERMY /
 PERMX PERMZ /
/

MULTIPLY
 'PERMZ' 0.01 /
/ 

RPTGRID
 'ALLNNC' /


RADFIN4
-- name I1 I2  J1 J2  K1 K2  NR  NTHETA  NZ 
 'WD1'  1  2   2  3   1  4   10     4     8  /
/
 

------------------------------------------------------------------------------------------------  
EDIT
------------------------------------------------------------------------------------------------

INCLUDE
 'include/edit_nnc.inc' /

-- repeted NNC, should be product of first and second entry
EDITNNC
 3 1 3  4 1 1  0.0010 /
 3 2 3  4 2 1  0.0010 /
/

------------------------------------------------------------------------------------------------
PROPS
------------------------------------------------------------------------------------------------

NOECHO


INCLUDE
'include/PVT-WET-GAS.INC' /



INCLUDE
 'include/scal_mod2.inc' /


FILLEPS


------------------------------------------------------------------------------------------------
REGIONS
------------------------------------------------------------------------------------------------

EQLNUM
 210*1 /
 
SATNUM
 210*1 /


------------------------------------------------------------------------------------------------
SOLUTION
------------------------------------------------------------------------------------------------

RPTSOL
SWAT FIP=3 THPRES EQUIL RECOV FIPRESV /

RPTRST
 BASIC=2 /

EQUIL
-- Datum    P     woc     Pc   goc    Pc  Rsvd  Rvvd
2281.00  268.56  2545.0   0.0  2281.00  0.0   1   0   0 /   C,D, and I segments: 		Not 2

RSVD
 2581.78  122.30
 2597.0   110.00
 2660.7   106.77
 2697.0   106.77 /


------------------------------------------------------------------------------------------------
SUMMARY
------------------------------------------------------------------------------------------------

DATE
-- 
RUNSUM
--
SEPARATE

WBHP
/

WOPR
/

BPR
 5 3 1 /
/

------------------------------------------------------------------------------------------------
SCHEDULE
------------------------------------------------------------------------------------------------

-- start: 10  'OCT' 2018 /


RPTRST
 BASIC=0 /


WELSPECL 
   'D-1H'   'TEST'  'WD1'  1   1  1*       'OIL'  2*      'STOP'  4* /
/

COMPDATL 
-- WELL           I   J  K1   K2            Sat.      CF        DIAM        KH SKIN ND        DIR   Ro 
   'D-1H'  'WD1'  1   1  1    1      'OPEN'  1*     1*	  0.216    1*  2*         'Z'     1* /
   'D-1H'  'WD1'  1   2  1    1      'OPEN'  1*     1*	  0.216    1*  2*         'Z'     1* /
   'D-1H'  'WD1'  1   3  1    1      'OPEN'  1*     1*	  0.216    1*  2*         'Z'     1*   /
   'D-1H'  'WD1'  1   4  1    1      'OPEN'  1*     1*	  0.216    1*  2*         'Z'     1*   /

   'D-1H'  'WD1'  1   1  1    2      'OPEN'  1*     1*	  0.216    1*  2*         'Z'     1* /
   'D-1H'  'WD1'  1   2  1    2      'OPEN'  1*     1*	  0.216    1*  2*         'Z'     1* /
   'D-1H'  'WD1'  1   3  1    2      'OPEN'  1*     1*	  0.216    1*  2*         'Z'     1*   /
   'D-1H'  'WD1'  1   4  1    2      'OPEN'  1*     1*	  0.216    1*  2*         'Z'     1*   /

   'D-1H'  'WD1'  1   1  1    3      'OPEN'  1*     1*	  0.216    1*  2*         'Z'     1* /
   'D-1H'  'WD1'  1   2  1    3      'OPEN'  1*     1*	  0.216    1*  2*         'Z'     1* /
   'D-1H'  'WD1'  1   3  1    3      'OPEN'  1*     1*	  0.216    1*  2*         'Z'     1*   /
   'D-1H'  'WD1'  1   4  1    3      'OPEN'  1*     1*	  0.216    1*  2*         'Z'     1*   /

   'D-1H'  'WD1'  1   1  1    4      'OPEN'  1*     1*	  0.216    1*  2*         'Z'     1* /
   'D-1H'  'WD1'  1   2  1    4      'OPEN'  1*     1*	  0.216    1*  2*         'Z'     1* /
   'D-1H'  'WD1'  1   3  1    4      'OPEN'  1*     1*	  0.216    1*  2*         'Z'     1*   /
   'D-1H'  'WD1'  1   4  1    4      'OPEN'  1*     1*	  0.216    1*  2*         'Z'     1*   /

   'D-1H'  'WD1'  1   1  1    5      'OPEN'  1*     1*	  0.216    1*  2*         'Z'     1* /
   'D-1H'  'WD1'  1   2  1    5      'OPEN'  1*     1*	  0.216    1*  2*         'Z'     1* /
   'D-1H'  'WD1'  1   3  1    5      'OPEN'  1*     1*	  0.216    1*  2*         'Z'     1*   /
   'D-1H'  'WD1'  1   4  1    5      'OPEN'  1*     1*	  0.216    1*  2*         'Z'     1*   /

   'D-1H'  'WD1'  1   1  1    6     'OPEN'  1*     1*	  0.216    1*  2*         'Z'     1* /
   'D-1H'  'WD1'  1   2  1    6      'OPEN'  1*     1*	  0.216    1*  2*         'Z'     1* /
   'D-1H'  'WD1'  1   3  1    6      'OPEN'  1*     1*	  0.216    1*  2*         'Z'     1*   /
   'D-1H'  'WD1'  1   4  1    6      'OPEN'  1*     1*	  0.216    1*  2*         'Z'     1*   /
/

WCONPROD    --written by schedule script
--   Well_name   Status  Ctrl    Orate   Wrate   Grate   Lrate   RFV     FBHP    WHP     VFP     Glift
    'D-1H'       OPEN    ORAT    1500      1*     1*     8000.0  1*      100.0   1*      1*       1*      /
/


DATES
 01 'OCT' 2018 01:00:00 /
 01 'OCT' 2018 02:00:00 /
 01 'OCT' 2018 03:00:00 /
 01 'OCT' 2018 04:00:00 /
 01 'OCT' 2018 05:00:00 /
 01 'OCT' 2018 06:00:00 /
 01 'OCT' 2018 07:00:00 /
 01 'OCT' 2018 08:00:00 /
 01 'OCT' 2018 09:00:00 /
 01 'OCT' 2018 10:00:00 /
 01 'OCT' 2018 11:00:00 /
 01 'OCT' 2018 12:00:00 /
 01 'OCT' 2018 13:00:00 /
 01 'OCT' 2018 14:00:00 /
 01 'OCT' 2018 15:00:00 /
 01 'OCT' 2018 16:00:00 /
 01 'OCT' 2018 17:00:00 /
 01 'OCT' 2018 18:00:00 /
 01 'OCT' 2018 19:00:00 /
 01 'OCT' 2018 20:00:00 /
 01 'OCT' 2018 21:00:00 /
 01 'OCT' 2018 22:00:00 /
/

WELOPEN
 'D-1H' 'STOP' /
/ 

DATES 
 01 'OCT' 2018 22:01:00 /
 01 'OCT' 2018 22:03:00 /
 01 'OCT' 2018 22:06:00 /
 01 'OCT' 2018 22:10:00 /
 01 'OCT' 2018 22:15:00 /
 01 'OCT' 2018 22:20:00 /
 01 'OCT' 2018 22:30:00 /
 01 'OCT' 2018 22:45:00 /
 01 'OCT' 2018 23:00:00 /
 01 'OCT' 2018 23:20:00 /
 01 'OCT' 2018 23:40:00 /
 02 'OCT' 2018 00:00:00 /
 02 'OCT' 2018 00:30:00 /
 02 'OCT' 2018 01:00:00 /
 02 'OCT' 2018 01:30:00 /
 02 'OCT' 2018 02:00:00 /
 02 'OCT' 2018 03:00:00 /
 02 'OCT' 2018 04:00:00 /
 02 'OCT' 2018 05:00:00 /
 02 'OCT' 2018 06:00:00 /
 02 'OCT' 2018 07:00:00 /
 02 'OCT' 2018 08:00:00 /
 02 'OCT' 2018 09:00:00 /
 02 'OCT' 2018 10:00:00 /
 02 'OCT' 2018 11:00:00 /
 02 'OCT' 2018 12:00:00 /
 02 'OCT' 2018 13:00:00 /
 02 'OCT' 2018 14:00:00 /
 02 'OCT' 2018 15:00:00 /
 02 'OCT' 2018 16:00:00 /
 02 'OCT' 2018 17:00:00 /
 02 'OCT' 2018 18:00:00 /
 02 'OCT' 2018 19:00:00 /
 02 'OCT' 2018 20:00:00 /
 02 'OCT' 2018 21:00:00 /
 02 'OCT' 2018 22:00:00 /
 02 'OCT' 2018 23:00:00 /
 03 'OCT' 2018 00:00:00 /
 03 'OCT' 2018 01:00:00 /
 03 'OCT' 2018 02:00:00 /
 03 'OCT' 2018 03:00:00 /
 03 'OCT' 2018 04:00:00 /
 03 'OCT' 2018 05:00:00 /
 03 'OCT' 2018 06:00:00 /
 03 'OCT' 2018 07:00:00 /
 03 'OCT' 2018 08:00:00 /
 03 'OCT' 2018 09:00:00 /
 03 'OCT' 2018 10:00:00 /
 03 'OCT' 2018 12:00:00 /
 03 'OCT' 2018 14:00:00 /
 03 'OCT' 2018 16:00:00 /
 03 'OCT' 2018 18:00:00 /
 03 'OCT' 2018 20:00:00 /
 03 'OCT' 2018 22:00:00 /
 04 'OCT' 2018 00:00:00 /
 04 'OCT' 2018 02:00:00 /
 04 'OCT' 2018 04:00:00 /
 04 'OCT' 2018 06:00:00 /
 04 'OCT' 2018 08:00:00 /
 04 'OCT' 2018 10:00:00 /
 04 'OCT' 2018 12:00:00 /
 04 'OCT' 2018 14:00:00 /
 04 'OCT' 2018 16:00:00 /
 04 'OCT' 2018 18:00:00 /
 04 'OCT' 2018 20:00:00 /
 04 'OCT' 2018 22:00:00 /
 05 'OCT' 2018 00:00:00 /
 05 'OCT' 2018 02:00:00 /
 05 'OCT' 2018 04:00:00 /
 05 'OCT' 2018 06:00:00 /
 05 'OCT' 2018 08:00:00 /
 05 'OCT' 2018 10:00:00 /
 05 'OCT' 2018 12:00:00 /
 05 'OCT' 2018 14:00:00 /
 05 'OCT' 2018 16:00:00 /
 05 'OCT' 2018 18:00:00 /
 05 'OCT' 2018 20:00:00 /
 05 'OCT' 2018 22:00:00 /
 06 'OCT' 2018 00:00:00 /
 06 'OCT' 2018 02:00:00 /
 06 'OCT' 2018 04:00:00 /
 06 'OCT' 2018 06:00:00 /
 06 'OCT' 2018 08:00:00 /
 06 'OCT' 2018 10:00:00 /
 06 'OCT' 2018 12:00:00 /
 06 'OCT' 2018 14:00:00 /
 06 'OCT' 2018 16:00:00 /
 06 'OCT' 2018 18:00:00 /
 06 'OCT' 2018 20:00:00 /
 06 'OCT' 2018 22:00:00 /
 07 'OCT' 2018 00:00:00 /
 07 'OCT' 2018 02:00:00 /
 07 'OCT' 2018 04:00:00 /
 07 'OCT' 2018 06:00:00 /
 07 'OCT' 2018 08:00:00 /
 07 'OCT' 2018 10:00:00 /
 07 'OCT' 2018 12:00:00 /
 07 'OCT' 2018 14:00:00 /
 07 'OCT' 2018 16:00:00 /
 07 'OCT' 2018 18:00:00 /
 07 'OCT' 2018 20:00:00 /
 07 'OCT' 2018 22:00:00 /
 08 'OCT' 2018 00:00:00 /
 08 'OCT' 2018 02:00:00 /
/


END
